tests/data/power_flow/pandapower/components/symmetric/sym_load/sym_output.json
{
  "version": "1.0",
  "type": "sym_output",
  "is_batch": false,
  "attributes": {},
  "data": {
    "line": [
      {
        "id": 3,
        "loading": 0.00228034992633033,
        "p_from": 30000.982740308682,
        "q_from": -28632.995205087103,
        "i_from": 2.28034992633033,
        "s_from": 41471.766055942695,
        "p_to": -29998.65149273806,
        "q_to": -5999.730298554823,
        "i_to": 1.6822401641033435,
        "s_to": 30592.741868589554
      }
    ],
    "node": [
      {
        "id": 1,
        "u_pu": 1.0000025505567218,
        "u": 10500.02678084558,
        "u_angle": -3.2701099673027157e-06
      },
      {
        "id": 2,
        "u_pu": 0.9999550502997852,
        "u": 10499.528028147743,
        "u_angle": -8.335437530113063e-05
      }
    ],
    "source": [
      {
        "id": 4,
        "p": 30000.98274013815,
        "q": -28632.99520537132,
        "i": 2.280349926334335,
        "s": 41471.766056015564
      }
    ],
    "sym_load": [
      {
        "id": 6,
        "p": 10000.0,
        "q": 2000.0
      },
      {
        "id": 7,
        "p": 9999.55050299785,
        "q": 1999.9101005995706
      },
      {
        "id": 8,
        "p": 9999.101026200458,
        "q": 1999.8202052400916
      },
      {
        "id": 9,
        "p": 0.0,
        "q": 0.0
      }
    ]
  }
}
